<routes xmlns:xsi="http://www.w3.org/2001/XMLSchema-instance" xsi:noNamespaceSchemaLocation="http://sumo.dlr.de/xsd/routes_file.xsd">
       <vType id="SUMO_DEFAULT_TYPE" accel="0.8" decel="4.5" sigma="0" length="5" minGap="2" maxSpeed="70"/>
       <route id="always_right" edges="1 9 10 2 13 14 3 4 5 6 1"/>
       <route id="always_left" edges="1 8 7 2 3 4 5 6 1"/>
       <route id="horizontal" edges="1 2 3 4 5 6 1"/>
       <route id="vertical_j0" edges="7 9 10 8 7"/>
       <route id="vertical_j1" edges="11 13 14 12 11"/>
       
    <vehicle id="left_0" type="SUMO_DEFAULT_TYPE" route="vertical_j0" depart="0" />
    <vehicle id="left_1" type="SUMO_DEFAULT_TYPE" route="vertical_j1" depart="0" />
    <vehicle id="left_2" type="SUMO_DEFAULT_TYPE" route="vertical_j0" depart="2" />
    <vehicle id="left_3" type="SUMO_DEFAULT_TYPE" route="vertical_j1" depart="2" />
    <vehicle id="right_4" type="SUMO_DEFAULT_TYPE" route="horizontal" depart="3" />
    <vehicle id="right_5" type="SUMO_DEFAULT_TYPE" route="always_right" depart="4" color="1,0,0"/>
    <vehicle id="left_6" type="SUMO_DEFAULT_TYPE" route="vertical_j0" depart="10" />
    <vehicle id="left_7" type="SUMO_DEFAULT_TYPE" route="vertical_j1" depart="10" />
    <vehicle id="right_8" type="SUMO_DEFAULT_TYPE" route="horizontal" depart="11" />
    <vehicle id="right_9" type="SUMO_DEFAULT_TYPE" route="always_right" depart="16" color="1,0,0"/>
    <vehicle id="right_10" type="SUMO_DEFAULT_TYPE" route="horizontal" depart="22" />
    <vehicle id="left_11" type="SUMO_DEFAULT_TYPE" route="vertical_j0" depart="22" />
    <vehicle id="left_12" type="SUMO_DEFAULT_TYPE" route="vertical_j1" depart="22" />
    <vehicle id="right_13" type="SUMO_DEFAULT_TYPE" route="horizontal" depart="25" />
    <vehicle id="right_14" type="SUMO_DEFAULT_TYPE" route="horizontal" depart="31" />
    <vehicle id="left_15" type="SUMO_DEFAULT_TYPE" route="always_left" depart="31" color="0,1,0"/>
    <vehicle id="right_16" type="SUMO_DEFAULT_TYPE" route="horizontal" depart="34" />
    <vehicle id="right_17" type="SUMO_DEFAULT_TYPE" route="horizontal" depart="40" />
    <vehicle id="left_18" type="SUMO_DEFAULT_TYPE" route="vertical_j0" depart="41" />
    <vehicle id="left_19" type="SUMO_DEFAULT_TYPE" route="vertical_j1" depart="41" />
    <vehicle id="right_20" type="SUMO_DEFAULT_TYPE" route="horizontal" depart="44" />
    <vehicle id="left_21" type="SUMO_DEFAULT_TYPE" route="vertical_j0" depart="49" />
    <vehicle id="left_22" type="SUMO_DEFAULT_TYPE" route="vertical_j1" depart="49" />
    <vehicle id="right_23" type="SUMO_DEFAULT_TYPE" route="horizontal" depart="56" />
    <vehicle id="right_24" type="SUMO_DEFAULT_TYPE" route="horizontal" depart="63" />
    <vehicle id="right_25" type="SUMO_DEFAULT_TYPE" route="horizontal" depart="64" />
    <vehicle id="left_26" type="SUMO_DEFAULT_TYPE" route="vertical_j0" depart="67" />
    <vehicle id="left_27" type="SUMO_DEFAULT_TYPE" route="vertical_j1" depart="67" />
    <vehicle id="right_28" type="SUMO_DEFAULT_TYPE" route="horizontal" depart="69" />
    <vehicle id="left_29" type="SUMO_DEFAULT_TYPE" route="always_left" depart="72" color="0,1,0"/>
    <vehicle id="left_30" type="SUMO_DEFAULT_TYPE" route="vertical_j0" depart="74" />
    <vehicle id="left_31" type="SUMO_DEFAULT_TYPE" route="vertical_j1" depart="74" />
    <vehicle id="right_32" type="SUMO_DEFAULT_TYPE" route="horizontal" depart="81" />
    <vehicle id="left_33" type="SUMO_DEFAULT_TYPE" route="always_left" depart="85" color="0,1,0"/>
    <vehicle id="right_34" type="SUMO_DEFAULT_TYPE" route="horizontal" depart="92" />
    <vehicle id="left_35" type="SUMO_DEFAULT_TYPE" route="always_left" depart="98" color="0,1,0"/>
    <vehicle id="right_36" type="SUMO_DEFAULT_TYPE" route="always_right" depart="103" color="1,0,0"/>
    <vehicle id="right_37" type="SUMO_DEFAULT_TYPE" route="always_right" depart="106" color="1,0,0"/>
    <vehicle id="right_38" type="SUMO_DEFAULT_TYPE" route="horizontal" depart="115" />
    <vehicle id="left_39" type="SUMO_DEFAULT_TYPE" route="vertical_j0" depart="117" />
    <vehicle id="left_40" type="SUMO_DEFAULT_TYPE" route="vertical_j1" depart="117" />
    <vehicle id="left_41" type="SUMO_DEFAULT_TYPE" route="vertical_j0" depart="120" />
    <vehicle id="left_42" type="SUMO_DEFAULT_TYPE" route="vertical_j1" depart="120" />
    <vehicle id="left_43" type="SUMO_DEFAULT_TYPE" route="vertical_j0" depart="123" />
    <vehicle id="left_44" type="SUMO_DEFAULT_TYPE" route="vertical_j1" depart="123" />
    <vehicle id="left_45" type="SUMO_DEFAULT_TYPE" route="vertical_j0" depart="125" />
    <vehicle id="left_46" type="SUMO_DEFAULT_TYPE" route="vertical_j1" depart="125" />
    <vehicle id="right_47" type="SUMO_DEFAULT_TYPE" route="horizontal" depart="126" />
    <vehicle id="right_48" type="SUMO_DEFAULT_TYPE" route="horizontal" depart="127" />
    <vehicle id="left_49" type="SUMO_DEFAULT_TYPE" route="vertical_j0" depart="129" />
    <vehicle id="left_50" type="SUMO_DEFAULT_TYPE" route="vertical_j1" depart="129" />
    <vehicle id="left_51" type="SUMO_DEFAULT_TYPE" route="always_left" depart="129" color="0,1,0"/>
    <vehicle id="right_52" type="SUMO_DEFAULT_TYPE" route="horizontal" depart="132" />
    <vehicle id="right_53" type="SUMO_DEFAULT_TYPE" route="always_right" depart="135" color="1,0,0"/>
    <vehicle id="left_54" type="SUMO_DEFAULT_TYPE" route="vertical_j0" depart="137" />
    <vehicle id="left_55" type="SUMO_DEFAULT_TYPE" route="vertical_j1" depart="137" />
    <vehicle id="right_56" type="SUMO_DEFAULT_TYPE" route="horizontal" depart="138" />
    <vehicle id="right_57" type="SUMO_DEFAULT_TYPE" route="horizontal" depart="139" />
    <vehicle id="left_58" type="SUMO_DEFAULT_TYPE" route="vertical_j0" depart="147" />
    <vehicle id="left_59" type="SUMO_DEFAULT_TYPE" route="vertical_j1" depart="147" />
    <vehicle id="left_60" type="SUMO_DEFAULT_TYPE" route="always_left" depart="149" color="0,1,0"/>
    <vehicle id="right_61" type="SUMO_DEFAULT_TYPE" route="horizontal" depart="150" />
    <vehicle id="right_62" type="SUMO_DEFAULT_TYPE" route="horizontal" depart="152" />
    <vehicle id="left_63" type="SUMO_DEFAULT_TYPE" route="vertical_j0" depart="159" />
    <vehicle id="left_64" type="SUMO_DEFAULT_TYPE" route="vertical_j1" depart="159" />
    <vehicle id="right_65" type="SUMO_DEFAULT_TYPE" route="horizontal" depart="164" />
    <vehicle id="right_66" type="SUMO_DEFAULT_TYPE" route="horizontal" depart="171" />
    <vehicle id="right_67" type="SUMO_DEFAULT_TYPE" route="horizontal" depart="179" />
    <vehicle id="right_68" type="SUMO_DEFAULT_TYPE" route="horizontal" depart="180" />
    <vehicle id="right_69" type="SUMO_DEFAULT_TYPE" route="horizontal" depart="182" />
    <vehicle id="right_70" type="SUMO_DEFAULT_TYPE" route="horizontal" depart="192" />
    <vehicle id="left_71" type="SUMO_DEFAULT_TYPE" route="vertical_j0" depart="204" />
    <vehicle id="left_72" type="SUMO_DEFAULT_TYPE" route="vertical_j1" depart="204" />
    <vehicle id="left_73" type="SUMO_DEFAULT_TYPE" route="always_left" depart="206" color="0,1,0"/>
    <vehicle id="right_74" type="SUMO_DEFAULT_TYPE" route="horizontal" depart="213" />
    <vehicle id="right_75" type="SUMO_DEFAULT_TYPE" route="horizontal" depart="216" />
    <vehicle id="left_76" type="SUMO_DEFAULT_TYPE" route="vertical_j0" depart="218" />
    <vehicle id="left_77" type="SUMO_DEFAULT_TYPE" route="vertical_j1" depart="218" />
    <vehicle id="left_78" type="SUMO_DEFAULT_TYPE" route="always_left" depart="220" color="0,1,0"/>
    <vehicle id="right_79" type="SUMO_DEFAULT_TYPE" route="horizontal" depart="227" />
    <vehicle id="left_80" type="SUMO_DEFAULT_TYPE" route="vertical_j0" depart="232" />
    <vehicle id="left_81" type="SUMO_DEFAULT_TYPE" route="vertical_j1" depart="232" />
    <vehicle id="right_82" type="SUMO_DEFAULT_TYPE" route="horizontal" depart="239" />
    <vehicle id="right_83" type="SUMO_DEFAULT_TYPE" route="horizontal" depart="241" />
    <vehicle id="left_84" type="SUMO_DEFAULT_TYPE" route="always_left" depart="241" color="0,1,0"/>
    <vehicle id="right_85" type="SUMO_DEFAULT_TYPE" route="horizontal" depart="244" />
    <vehicle id="right_86" type="SUMO_DEFAULT_TYPE" route="horizontal" depart="245" />
    <vehicle id="right_87" type="SUMO_DEFAULT_TYPE" route="always_right" depart="248" color="1,0,0"/>
    <vehicle id="right_88" type="SUMO_DEFAULT_TYPE" route="horizontal" depart="250" />
    <vehicle id="left_89" type="SUMO_DEFAULT_TYPE" route="vertical_j0" depart="253" />
    <vehicle id="left_90" type="SUMO_DEFAULT_TYPE" route="vertical_j1" depart="253" />
    <vehicle id="right_91" type="SUMO_DEFAULT_TYPE" route="horizontal" depart="254" />
    <vehicle id="left_92" type="SUMO_DEFAULT_TYPE" route="always_left" depart="256" color="0,1,0"/>
    <vehicle id="left_93" type="SUMO_DEFAULT_TYPE" route="vertical_j0" depart="258" />
    <vehicle id="left_94" type="SUMO_DEFAULT_TYPE" route="vertical_j1" depart="258" />
    <vehicle id="left_95" type="SUMO_DEFAULT_TYPE" route="always_left" depart="258" color="0,1,0"/>
    <vehicle id="left_96" type="SUMO_DEFAULT_TYPE" route="vertical_j0" depart="262" />
    <vehicle id="left_97" type="SUMO_DEFAULT_TYPE" route="vertical_j1" depart="262" />
    <vehicle id="left_98" type="SUMO_DEFAULT_TYPE" route="vertical_j0" depart="265" />
    <vehicle id="left_99" type="SUMO_DEFAULT_TYPE" route="vertical_j1" depart="265" />
    <vehicle id="right_100" type="SUMO_DEFAULT_TYPE" route="horizontal" depart="266" />
    <vehicle id="left_101" type="SUMO_DEFAULT_TYPE" route="vertical_j0" depart="281" />
    <vehicle id="left_102" type="SUMO_DEFAULT_TYPE" route="vertical_j1" depart="281" />
    <vehicle id="left_103" type="SUMO_DEFAULT_TYPE" route="vertical_j0" depart="283" />
    <vehicle id="left_104" type="SUMO_DEFAULT_TYPE" route="vertical_j1" depart="283" />
    <vehicle id="right_105" type="SUMO_DEFAULT_TYPE" route="always_right" depart="284" color="1,0,0"/>
    <vehicle id="right_106" type="SUMO_DEFAULT_TYPE" route="horizontal" depart="287" />
    <vehicle id="left_107" type="SUMO_DEFAULT_TYPE" route="vertical_j0" depart="287" />
    <vehicle id="left_108" type="SUMO_DEFAULT_TYPE" route="vertical_j1" depart="287" />
    <vehicle id="left_109" type="SUMO_DEFAULT_TYPE" route="vertical_j0" depart="291" />
    <vehicle id="left_110" type="SUMO_DEFAULT_TYPE" route="vertical_j1" depart="291" />
    <vehicle id="right_111" type="SUMO_DEFAULT_TYPE" route="horizontal" depart="292" />
    <vehicle id="left_112" type="SUMO_DEFAULT_TYPE" route="always_left" depart="293" color="0,1,0"/>
    <vehicle id="right_113" type="SUMO_DEFAULT_TYPE" route="horizontal" depart="296" />
    <vehicle id="left_114" type="SUMO_DEFAULT_TYPE" route="vertical_j0" depart="296" />
    <vehicle id="left_115" type="SUMO_DEFAULT_TYPE" route="vertical_j1" depart="296" />
    <vehicle id="right_116" type="SUMO_DEFAULT_TYPE" route="horizontal" depart="298" />
    <vehicle id="left_117" type="SUMO_DEFAULT_TYPE" route="vertical_j0" depart="298" />
    <vehicle id="left_118" type="SUMO_DEFAULT_TYPE" route="vertical_j1" depart="298" />
    <vehicle id="right_119" type="SUMO_DEFAULT_TYPE" route="horizontal" depart="309" />
    <vehicle id="right_120" type="SUMO_DEFAULT_TYPE" route="horizontal" depart="310" />
    <vehicle id="right_121" type="SUMO_DEFAULT_TYPE" route="horizontal" depart="311" />
    <vehicle id="left_122" type="SUMO_DEFAULT_TYPE" route="vertical_j0" depart="315" />
    <vehicle id="left_123" type="SUMO_DEFAULT_TYPE" route="vertical_j1" depart="315" />
    <vehicle id="right_124" type="SUMO_DEFAULT_TYPE" route="horizontal" depart="320" />
    <vehicle id="right_125" type="SUMO_DEFAULT_TYPE" route="horizontal" depart="329" />
    <vehicle id="left_126" type="SUMO_DEFAULT_TYPE" route="always_left" depart="330" color="0,1,0"/>
    <vehicle id="right_127" type="SUMO_DEFAULT_TYPE" route="horizontal" depart="340" />
    <vehicle id="left_128" type="SUMO_DEFAULT_TYPE" route="vertical_j0" depart="343" />
    <vehicle id="left_129" type="SUMO_DEFAULT_TYPE" route="vertical_j1" depart="343" />
    <vehicle id="right_130" type="SUMO_DEFAULT_TYPE" route="always_right" depart="344" color="1,0,0"/>
    <vehicle id="right_131" type="SUMO_DEFAULT_TYPE" route="horizontal" depart="346" />
    <vehicle id="right_132" type="SUMO_DEFAULT_TYPE" route="horizontal" depart="347" />
    <vehicle id="right_133" type="SUMO_DEFAULT_TYPE" route="always_right" depart="347" color="1,0,0"/>
    <vehicle id="right_134" type="SUMO_DEFAULT_TYPE" route="horizontal" depart="348" />
    <vehicle id="left_135" type="SUMO_DEFAULT_TYPE" route="vertical_j0" depart="350" />
    <vehicle id="left_136" type="SUMO_DEFAULT_TYPE" route="vertical_j1" depart="350" />
    <vehicle id="right_137" type="SUMO_DEFAULT_TYPE" route="horizontal" depart="352" />
    <vehicle id="left_138" type="SUMO_DEFAULT_TYPE" route="vertical_j0" depart="354" />
    <vehicle id="left_139" type="SUMO_DEFAULT_TYPE" route="vertical_j1" depart="354" />
    <vehicle id="left_140" type="SUMO_DEFAULT_TYPE" route="vertical_j0" depart="357" />
    <vehicle id="left_141" type="SUMO_DEFAULT_TYPE" route="vertical_j1" depart="357" />
    <vehicle id="left_142" type="SUMO_DEFAULT_TYPE" route="vertical_j0" depart="359" />
    <vehicle id="left_143" type="SUMO_DEFAULT_TYPE" route="vertical_j1" depart="359" />
    <vehicle id="right_144" type="SUMO_DEFAULT_TYPE" route="horizontal" depart="363" />
    <vehicle id="right_145" type="SUMO_DEFAULT_TYPE" route="horizontal" depart="366" />
    <vehicle id="left_146" type="SUMO_DEFAULT_TYPE" route="vertical_j0" depart="369" />
    <vehicle id="left_147" type="SUMO_DEFAULT_TYPE" route="vertical_j1" depart="369" />
    <vehicle id="left_148" type="SUMO_DEFAULT_TYPE" route="vertical_j0" depart="372" />
    <vehicle id="left_149" type="SUMO_DEFAULT_TYPE" route="vertical_j1" depart="372" />
    <vehicle id="right_150" type="SUMO_DEFAULT_TYPE" route="horizontal" depart="374" />
    <vehicle id="left_151" type="SUMO_DEFAULT_TYPE" route="vertical_j0" depart="376" />
    <vehicle id="left_152" type="SUMO_DEFAULT_TYPE" route="vertical_j1" depart="376" />
    <vehicle id="right_153" type="SUMO_DEFAULT_TYPE" route="horizontal" depart="388" />
    <vehicle id="right_154" type="SUMO_DEFAULT_TYPE" route="horizontal" depart="389" />
    <vehicle id="left_155" type="SUMO_DEFAULT_TYPE" route="vertical_j0" depart="392" />
    <vehicle id="left_156" type="SUMO_DEFAULT_TYPE" route="vertical_j1" depart="392" />
    <vehicle id="right_157" type="SUMO_DEFAULT_TYPE" route="horizontal" depart="402" />
    <vehicle id="left_158" type="SUMO_DEFAULT_TYPE" route="vertical_j0" depart="402" />
    <vehicle id="left_159" type="SUMO_DEFAULT_TYPE" route="vertical_j1" depart="402" />
    <vehicle id="right_160" type="SUMO_DEFAULT_TYPE" route="horizontal" depart="406" />
    <vehicle id="left_161" type="SUMO_DEFAULT_TYPE" route="vertical_j0" depart="406" />
    <vehicle id="left_162" type="SUMO_DEFAULT_TYPE" route="vertical_j1" depart="406" />
    <vehicle id="left_163" type="SUMO_DEFAULT_TYPE" route="vertical_j0" depart="414" />
    <vehicle id="left_164" type="SUMO_DEFAULT_TYPE" route="vertical_j1" depart="414" />
    <vehicle id="right_165" type="SUMO_DEFAULT_TYPE" route="horizontal" depart="424" />
    <vehicle id="left_166" type="SUMO_DEFAULT_TYPE" route="vertical_j0" depart="430" />
    <vehicle id="left_167" type="SUMO_DEFAULT_TYPE" route="vertical_j1" depart="430" />
    <vehicle id="right_168" type="SUMO_DEFAULT_TYPE" route="always_right" depart="433" color="1,0,0"/>
    <vehicle id="left_169" type="SUMO_DEFAULT_TYPE" route="always_left" depart="434" color="0,1,0"/>
    <vehicle id="right_170" type="SUMO_DEFAULT_TYPE" route="horizontal" depart="437" />
    <vehicle id="right_171" type="SUMO_DEFAULT_TYPE" route="always_right" depart="451" color="1,0,0"/>
    <vehicle id="right_172" type="SUMO_DEFAULT_TYPE" route="horizontal" depart="459" />
    <vehicle id="right_173" type="SUMO_DEFAULT_TYPE" route="horizontal" depart="462" />
    <vehicle id="left_174" type="SUMO_DEFAULT_TYPE" route="always_left" depart="468" color="0,1,0"/>
    <vehicle id="left_175" type="SUMO_DEFAULT_TYPE" route="vertical_j0" depart="469" />
    <vehicle id="left_176" type="SUMO_DEFAULT_TYPE" route="vertical_j1" depart="469" />
    <vehicle id="right_177" type="SUMO_DEFAULT_TYPE" route="horizontal" depart="477" />
    <vehicle id="right_178" type="SUMO_DEFAULT_TYPE" route="horizontal" depart="481" />
    <vehicle id="right_179" type="SUMO_DEFAULT_TYPE" route="horizontal" depart="483" />
    <vehicle id="left_180" type="SUMO_DEFAULT_TYPE" route="vertical_j0" depart="484" />
    <vehicle id="left_181" type="SUMO_DEFAULT_TYPE" route="vertical_j1" depart="484" />
    <vehicle id="right_182" type="SUMO_DEFAULT_TYPE" route="always_right" depart="484" color="1,0,0"/>
    <vehicle id="left_183" type="SUMO_DEFAULT_TYPE" route="vertical_j0" depart="490" />
    <vehicle id="left_184" type="SUMO_DEFAULT_TYPE" route="vertical_j1" depart="490" />
    <vehicle id="left_185" type="SUMO_DEFAULT_TYPE" route="always_left" depart="490" color="0,1,0"/>
    <vehicle id="left_186" type="SUMO_DEFAULT_TYPE" route="always_left" depart="494" color="0,1,0"/>
    <vehicle id="right_187" type="SUMO_DEFAULT_TYPE" route="horizontal" depart="495" />
    <vehicle id="left_188" type="SUMO_DEFAULT_TYPE" route="vertical_j0" depart="495" />
    <vehicle id="left_189" type="SUMO_DEFAULT_TYPE" route="vertical_j1" depart="495" />
    <vehicle id="right_190" type="SUMO_DEFAULT_TYPE" route="horizontal" depart="496" />
    <vehicle id="right_191" type="SUMO_DEFAULT_TYPE" route="horizontal" depart="501" />
    <vehicle id="left_192" type="SUMO_DEFAULT_TYPE" route="always_left" depart="512" color="0,1,0"/>
    <vehicle id="right_193" type="SUMO_DEFAULT_TYPE" route="horizontal" depart="517" />
    <vehicle id="right_194" type="SUMO_DEFAULT_TYPE" route="horizontal" depart="528" />
    <vehicle id="right_195" type="SUMO_DEFAULT_TYPE" route="horizontal" depart="530" />
    <vehicle id="left_196" type="SUMO_DEFAULT_TYPE" route="always_left" depart="530" color="0,1,0"/>
    <vehicle id="left_197" type="SUMO_DEFAULT_TYPE" route="always_left" depart="531" color="0,1,0"/>
    <vehicle id="right_198" type="SUMO_DEFAULT_TYPE" route="horizontal" depart="533" />
    <vehicle id="right_199" type="SUMO_DEFAULT_TYPE" route="horizontal" depart="538" />
    <vehicle id="left_200" type="SUMO_DEFAULT_TYPE" route="vertical_j0" depart="538" />
    <vehicle id="left_201" type="SUMO_DEFAULT_TYPE" route="vertical_j1" depart="538" />
    <vehicle id="right_202" type="SUMO_DEFAULT_TYPE" route="horizontal" depart="540" />
    <vehicle id="right_203" type="SUMO_DEFAULT_TYPE" route="horizontal" depart="542" />
    <vehicle id="right_204" type="SUMO_DEFAULT_TYPE" route="horizontal" depart="543" />
    <vehicle id="right_205" type="SUMO_DEFAULT_TYPE" route="horizontal" depart="545" />
    <vehicle id="right_206" type="SUMO_DEFAULT_TYPE" route="horizontal" depart="547" />
    <vehicle id="left_207" type="SUMO_DEFAULT_TYPE" route="vertical_j0" depart="548" />
    <vehicle id="left_208" type="SUMO_DEFAULT_TYPE" route="vertical_j1" depart="548" />
    <vehicle id="left_209" type="SUMO_DEFAULT_TYPE" route="vertical_j0" depart="550" />
    <vehicle id="left_210" type="SUMO_DEFAULT_TYPE" route="vertical_j1" depart="550" />
    <vehicle id="right_211" type="SUMO_DEFAULT_TYPE" route="horizontal" depart="555" />
    <vehicle id="left_212" type="SUMO_DEFAULT_TYPE" route="vertical_j0" depart="555" />
    <vehicle id="left_213" type="SUMO_DEFAULT_TYPE" route="vertical_j1" depart="555" />
    <vehicle id="left_214" type="SUMO_DEFAULT_TYPE" route="always_left" depart="557" color="0,1,0"/>
    <vehicle id="right_215" type="SUMO_DEFAULT_TYPE" route="horizontal" depart="558" />
    <vehicle id="right_216" type="SUMO_DEFAULT_TYPE" route="horizontal" depart="562" />
    <vehicle id="right_217" type="SUMO_DEFAULT_TYPE" route="horizontal" depart="563" />
    <vehicle id="right_218" type="SUMO_DEFAULT_TYPE" route="horizontal" depart="571" />
    <vehicle id="left_219" type="SUMO_DEFAULT_TYPE" route="vertical_j0" depart="576" />
    <vehicle id="left_220" type="SUMO_DEFAULT_TYPE" route="vertical_j1" depart="576" />
    <vehicle id="left_221" type="SUMO_DEFAULT_TYPE" route="always_left" depart="582" color="0,1,0"/>
    <vehicle id="left_222" type="SUMO_DEFAULT_TYPE" route="always_left" depart="585" color="0,1,0"/>
    <vehicle id="right_223" type="SUMO_DEFAULT_TYPE" route="horizontal" depart="587" />
    <vehicle id="right_224" type="SUMO_DEFAULT_TYPE" route="always_right" depart="593" color="1,0,0"/>
    <vehicle id="right_225" type="SUMO_DEFAULT_TYPE" route="horizontal" depart="596" />
    <vehicle id="right_226" type="SUMO_DEFAULT_TYPE" route="horizontal" depart="601" />
    <vehicle id="right_227" type="SUMO_DEFAULT_TYPE" route="horizontal" depart="603" />
    <vehicle id="right_228" type="SUMO_DEFAULT_TYPE" route="horizontal" depart="606" />
    <vehicle id="left_229" type="SUMO_DEFAULT_TYPE" route="always_left" depart="606" color="0,1,0"/>
    <vehicle id="right_230" type="SUMO_DEFAULT_TYPE" route="horizontal" depart="609" />
    <vehicle id="left_231" type="SUMO_DEFAULT_TYPE" route="vertical_j0" depart="609" />
    <vehicle id="left_232" type="SUMO_DEFAULT_TYPE" route="vertical_j1" depart="609" />
    <vehicle id="right_233" type="SUMO_DEFAULT_TYPE" route="horizontal" depart="612" />
    <vehicle id="left_234" type="SUMO_DEFAULT_TYPE" route="vertical_j0" depart="613" />
    <vehicle id="left_235" type="SUMO_DEFAULT_TYPE" route="vertical_j1" depart="613" />
    <vehicle id="right_236" type="SUMO_DEFAULT_TYPE" route="horizontal" depart="629" />
    <vehicle id="right_237" type="SUMO_DEFAULT_TYPE" route="horizontal" depart="634" />
    <vehicle id="right_238" type="SUMO_DEFAULT_TYPE" route="horizontal" depart="635" />
    <vehicle id="right_239" type="SUMO_DEFAULT_TYPE" route="always_right" depart="635" color="1,0,0"/>
    <vehicle id="right_240" type="SUMO_DEFAULT_TYPE" route="always_right" depart="640" color="1,0,0"/>
    <vehicle id="right_241" type="SUMO_DEFAULT_TYPE" route="horizontal" depart="642" />
    <vehicle id="right_242" type="SUMO_DEFAULT_TYPE" route="horizontal" depart="645" />
    <vehicle id="right_243" type="SUMO_DEFAULT_TYPE" route="always_right" depart="646" color="1,0,0"/>
    <vehicle id="right_244" type="SUMO_DEFAULT_TYPE" route="horizontal" depart="649" />
    <vehicle id="left_245" type="SUMO_DEFAULT_TYPE" route="vertical_j0" depart="651" />
    <vehicle id="left_246" type="SUMO_DEFAULT_TYPE" route="vertical_j1" depart="651" />
    <vehicle id="left_247" type="SUMO_DEFAULT_TYPE" route="vertical_j0" depart="659" />
    <vehicle id="left_248" type="SUMO_DEFAULT_TYPE" route="vertical_j1" depart="659" />
    <vehicle id="right_249" type="SUMO_DEFAULT_TYPE" route="horizontal" depart="660" />
    <vehicle id="left_250" type="SUMO_DEFAULT_TYPE" route="vertical_j0" depart="660" />
    <vehicle id="left_251" type="SUMO_DEFAULT_TYPE" route="vertical_j1" depart="660" />
    <vehicle id="right_252" type="SUMO_DEFAULT_TYPE" route="horizontal" depart="662" />
    <vehicle id="left_253" type="SUMO_DEFAULT_TYPE" route="vertical_j0" depart="665" />
    <vehicle id="left_254" type="SUMO_DEFAULT_TYPE" route="vertical_j1" depart="665" />
    <vehicle id="left_255" type="SUMO_DEFAULT_TYPE" route="vertical_j0" depart="666" />
    <vehicle id="left_256" type="SUMO_DEFAULT_TYPE" route="vertical_j1" depart="666" />
    <vehicle id="right_257" type="SUMO_DEFAULT_TYPE" route="always_right" depart="671" color="1,0,0"/>
    <vehicle id="left_258" type="SUMO_DEFAULT_TYPE" route="vertical_j0" depart="673" />
    <vehicle id="left_259" type="SUMO_DEFAULT_TYPE" route="vertical_j1" depart="673" />
    <vehicle id="right_260" type="SUMO_DEFAULT_TYPE" route="horizontal" depart="675" />
    <vehicle id="left_261" type="SUMO_DEFAULT_TYPE" route="vertical_j0" depart="676" />
    <vehicle id="left_262" type="SUMO_DEFAULT_TYPE" route="vertical_j1" depart="676" />
    <vehicle id="left_263" type="SUMO_DEFAULT_TYPE" route="vertical_j0" depart="680" />
    <vehicle id="left_264" type="SUMO_DEFAULT_TYPE" route="vertical_j1" depart="680" />
    <vehicle id="left_265" type="SUMO_DEFAULT_TYPE" route="vertical_j0" depart="682" />
    <vehicle id="left_266" type="SUMO_DEFAULT_TYPE" route="vertical_j1" depart="682" />
    <vehicle id="right_267" type="SUMO_DEFAULT_TYPE" route="always_right" depart="683" color="1,0,0"/>
    <vehicle id="right_268" type="SUMO_DEFAULT_TYPE" route="horizontal" depart="687" />
    <vehicle id="right_269" type="SUMO_DEFAULT_TYPE" route="always_right" depart="688" color="1,0,0"/>
    <vehicle id="left_270" type="SUMO_DEFAULT_TYPE" route="vertical_j0" depart="693" />
    <vehicle id="left_271" type="SUMO_DEFAULT_TYPE" route="vertical_j1" depart="693" />
    <vehicle id="left_272" type="SUMO_DEFAULT_TYPE" route="vertical_j0" depart="694" />
    <vehicle id="left_273" type="SUMO_DEFAULT_TYPE" route="vertical_j1" depart="694" />
    <vehicle id="left_274" type="SUMO_DEFAULT_TYPE" route="vertical_j0" depart="697" />
    <vehicle id="left_275" type="SUMO_DEFAULT_TYPE" route="vertical_j1" depart="697" />
    <vehicle id="left_276" type="SUMO_DEFAULT_TYPE" route="vertical_j0" depart="704" />
    <vehicle id="left_277" type="SUMO_DEFAULT_TYPE" route="vertical_j1" depart="704" />
    <vehicle id="right_278" type="SUMO_DEFAULT_TYPE" route="horizontal" depart="706" />
    <vehicle id="left_279" type="SUMO_DEFAULT_TYPE" route="vertical_j0" depart="706" />
    <vehicle id="left_280" type="SUMO_DEFAULT_TYPE" route="vertical_j1" depart="706" />
    <vehicle id="right_281" type="SUMO_DEFAULT_TYPE" route="horizontal" depart="707" />
    <vehicle id="right_282" type="SUMO_DEFAULT_TYPE" route="horizontal" depart="709" />
    <vehicle id="left_283" type="SUMO_DEFAULT_TYPE" route="vertical_j0" depart="709" />
    <vehicle id="left_284" type="SUMO_DEFAULT_TYPE" route="vertical_j1" depart="709" />
    <vehicle id="right_285" type="SUMO_DEFAULT_TYPE" route="horizontal" depart="710" />
    <vehicle id="right_286" type="SUMO_DEFAULT_TYPE" route="horizontal" depart="711" />
    <vehicle id="left_287" type="SUMO_DEFAULT_TYPE" route="always_left" depart="712" color="0,1,0"/>
    <vehicle id="left_288" type="SUMO_DEFAULT_TYPE" route="vertical_j0" depart="714" />
    <vehicle id="left_289" type="SUMO_DEFAULT_TYPE" route="vertical_j1" depart="714" />
    <vehicle id="left_290" type="SUMO_DEFAULT_TYPE" route="vertical_j0" depart="721" />
    <vehicle id="left_291" type="SUMO_DEFAULT_TYPE" route="vertical_j1" depart="721" />
    <vehicle id="right_292" type="SUMO_DEFAULT_TYPE" route="horizontal" depart="724" />
    <vehicle id="left_293" type="SUMO_DEFAULT_TYPE" route="vertical_j0" depart="727" />
    <vehicle id="left_294" type="SUMO_DEFAULT_TYPE" route="vertical_j1" depart="727" />
    <vehicle id="right_295" type="SUMO_DEFAULT_TYPE" route="horizontal" depart="730" />
    <vehicle id="right_296" type="SUMO_DEFAULT_TYPE" route="horizontal" depart="731" />
    <vehicle id="right_297" type="SUMO_DEFAULT_TYPE" route="horizontal" depart="733" />
    <vehicle id="right_298" type="SUMO_DEFAULT_TYPE" route="horizontal" depart="736" />
    <vehicle id="right_299" type="SUMO_DEFAULT_TYPE" route="horizontal" depart="740" />
    <vehicle id="right_300" type="SUMO_DEFAULT_TYPE" route="always_right" depart="741" color="1,0,0"/>
    <vehicle id="right_301" type="SUMO_DEFAULT_TYPE" route="horizontal" depart="745" />
    <vehicle id="left_302" type="SUMO_DEFAULT_TYPE" route="always_left" depart="747" color="0,1,0"/>
    <vehicle id="right_303" type="SUMO_DEFAULT_TYPE" route="horizontal" depart="751" />
    <vehicle id="left_304" type="SUMO_DEFAULT_TYPE" route="vertical_j0" depart="752" />
    <vehicle id="left_305" type="SUMO_DEFAULT_TYPE" route="vertical_j1" depart="752" />
    <vehicle id="right_306" type="SUMO_DEFAULT_TYPE" route="always_right" depart="754" color="1,0,0"/>
    <vehicle id="right_307" type="SUMO_DEFAULT_TYPE" route="horizontal" depart="756" />
    <vehicle id="left_308" type="SUMO_DEFAULT_TYPE" route="vertical_j0" depart="758" />
    <vehicle id="left_309" type="SUMO_DEFAULT_TYPE" route="vertical_j1" depart="758" />
    <vehicle id="right_310" type="SUMO_DEFAULT_TYPE" route="always_right" depart="760" color="1,0,0"/>
    <vehicle id="right_311" type="SUMO_DEFAULT_TYPE" route="horizontal" depart="763" />
    <vehicle id="left_312" type="SUMO_DEFAULT_TYPE" route="vertical_j0" depart="766" />
    <vehicle id="left_313" type="SUMO_DEFAULT_TYPE" route="vertical_j1" depart="766" />
    <vehicle id="left_314" type="SUMO_DEFAULT_TYPE" route="vertical_j0" depart="782" />
    <vehicle id="left_315" type="SUMO_DEFAULT_TYPE" route="vertical_j1" depart="782" />
    <vehicle id="left_316" type="SUMO_DEFAULT_TYPE" route="always_left" depart="783" color="0,1,0"/>
    <vehicle id="left_317" type="SUMO_DEFAULT_TYPE" route="vertical_j0" depart="785" />
    <vehicle id="left_318" type="SUMO_DEFAULT_TYPE" route="vertical_j1" depart="785" />
    <vehicle id="left_319" type="SUMO_DEFAULT_TYPE" route="always_left" depart="792" color="0,1,0"/>
    <vehicle id="right_320" type="SUMO_DEFAULT_TYPE" route="always_right" depart="795" color="1,0,0"/>
    <vehicle id="right_321" type="SUMO_DEFAULT_TYPE" route="horizontal" depart="801" />
    <vehicle id="right_322" type="SUMO_DEFAULT_TYPE" route="always_right" depart="801" color="1,0,0"/>
    <vehicle id="right_323" type="SUMO_DEFAULT_TYPE" route="always_right" depart="802" color="1,0,0"/>
    <vehicle id="right_324" type="SUMO_DEFAULT_TYPE" route="horizontal" depart="814" />
    <vehicle id="right_325" type="SUMO_DEFAULT_TYPE" route="horizontal" depart="818" />
    <vehicle id="right_326" type="SUMO_DEFAULT_TYPE" route="horizontal" depart="823" />
    <vehicle id="right_327" type="SUMO_DEFAULT_TYPE" route="horizontal" depart="825" />