<?xml version="1.0" encoding="UTF-8"?>

<!-- generated on Friday 06 September 2019 12:41:13 PM IST by Netedit Version 0.32.0
<?xml version="1.0" encoding="UTF-8"?>

<configuration xmlns:xsi="http://www.w3.org/2001/XMLSchema-instance" xsi:noNamespaceSchemaLocation="http://sumo.dlr.de/xsd/netconvertConfiguration.xsd">

    <input>
        <sumo-net-file value="/home/efkon/ATCS/ATCS_CODE/atcs2/atcs2.net.xml"/>
    </input>

    <output>
        <output-file value="/home/efkon/ATCS/ATCS_CODE/atcs2/atcs2.net.xml"/>
    </output>

    <processing>
        <no-turnarounds value="true"/>
        <offset.disable-normalization value="true"/>
        <lefthand value="false"/>
        <junctions.corner-detail value="0"/>
        <rectangular-lane-cut value="false"/>
        <walkingareas value="false"/>
    </processing>

</configuration>
-->

<net version="0.27" xmlns:xsi="http://www.w3.org/2001/XMLSchema-instance" xsi:noNamespaceSchemaLocation="http://sumo.dlr.de/xsd/net_file.xsd">

    <location netOffset="0.00,0.00" convBoundary="-70.00,-50.00,230.00,150.00" origBoundary="-10000000000.00,-10000000000.00,10000000000.00,10000000000.00" projParameter="!"/>

    <edge id=":0_0" function="internal">
        <lane id=":0_0_0" index="0" speed="13.89" length="4.82" shape="-70.00,51.65 -71.24,50.82 -71.65,50.00 -71.24,49.17 -70.00,48.35"/>
    </edge>
    <edge id=":1_0" function="internal">
        <lane id=":1_0_0" index="0" speed="13.89" length="5.00" shape="28.35,54.75 28.16,53.39 27.57,52.43 26.61,51.84 25.25,51.65"/>
    </edge>
    <edge id=":1_1" function="internal">
        <lane id=":1_1_0" index="0" speed="13.89" length="9.50" shape="28.35,54.75 28.35,45.25"/>
    </edge>
    <edge id=":1_2" function="internal">
        <lane id=":1_2_0" index="0" speed="13.89" length="10.32" shape="28.35,54.75 28.75,51.95 29.95,49.95 31.95,48.75 34.75,48.35"/>
    </edge>
    <edge id=":1_3" function="internal">
        <lane id=":1_3_0" index="0" speed="13.89" length="5.00" shape="34.75,51.65 33.39,51.84 32.43,52.42 31.84,53.39 31.65,54.75"/>
    </edge>
    <edge id=":1_4" function="internal">
        <lane id=":1_4_0" index="0" speed="13.89" length="9.50" shape="34.75,51.65 25.25,51.65"/>
    </edge>
    <edge id=":1_5" function="internal">
        <lane id=":1_5_0" index="0" speed="13.89" length="10.32" shape="34.75,51.65 31.95,51.25 29.95,50.05 28.75,48.05 28.35,45.25"/>
    </edge>
    <edge id=":1_6" function="internal">
        <lane id=":1_6_0" index="0" speed="13.89" length="5.00" shape="31.65,45.25 31.84,46.61 32.42,47.57 33.39,48.16 34.75,48.35"/>
    </edge>
    <edge id=":1_7" function="internal">
        <lane id=":1_7_0" index="0" speed="13.89" length="9.50" shape="31.65,45.25 31.65,54.75"/>
    </edge>
    <edge id=":1_8" function="internal">
        <lane id=":1_8_0" index="0" speed="13.89" length="10.32" shape="31.65,45.25 31.25,48.05 30.05,50.05 28.05,51.25 25.25,51.65"/>
    </edge>
    <edge id=":1_9" function="internal">
        <lane id=":1_9_0" index="0" speed="13.89" length="5.00" shape="25.25,48.35 26.61,48.16 27.58,47.58 28.16,46.61 28.35,45.25"/>
    </edge>
    <edge id=":1_10" function="internal">
        <lane id=":1_10_0" index="0" speed="13.89" length="9.50" shape="25.25,48.35 34.75,48.35"/>
    </edge>
    <edge id=":1_11" function="internal">
        <lane id=":1_11_0" index="0" speed="13.89" length="10.32" shape="25.25,48.35 28.05,48.75 30.05,49.95 31.25,51.95 31.65,54.75"/>
    </edge>
    <edge id=":2_0" function="internal">
        <lane id=":2_0_0" index="0" speed="13.89" length="5.00" shape="128.35,54.75 128.16,53.39 127.57,52.43 126.61,51.84 125.25,51.65"/>
    </edge>
    <edge id=":2_1" function="internal">
        <lane id=":2_1_0" index="0" speed="13.89" length="9.50" shape="128.35,54.75 128.35,45.25"/>
    </edge>
    <edge id=":2_2" function="internal">
        <lane id=":2_2_0" index="0" speed="13.89" length="10.32" shape="128.35,54.75 128.75,51.95 129.95,49.95 131.95,48.75 134.75,48.35"/>
    </edge>
    <edge id=":2_3" function="internal">
        <lane id=":2_3_0" index="0" speed="13.89" length="5.00" shape="134.75,51.65 133.39,51.84 132.43,52.42 131.84,53.39 131.65,54.75"/>
    </edge>
    <edge id=":2_4" function="internal">
        <lane id=":2_4_0" index="0" speed="13.89" length="9.50" shape="134.75,51.65 125.25,51.65"/>
    </edge>
    <edge id=":2_5" function="internal">
        <lane id=":2_5_0" index="0" speed="13.89" length="10.32" shape="134.75,51.65 131.95,51.25 129.95,50.05 128.75,48.05 128.35,45.25"/>
    </edge>
    <edge id=":2_6" function="internal">
        <lane id=":2_6_0" index="0" speed="13.89" length="5.00" shape="131.65,45.25 131.84,46.61 132.43,47.57 133.39,48.16 134.75,48.35"/>
    </edge>
    <edge id=":2_7" function="internal">
        <lane id=":2_7_0" index="0" speed="13.89" length="9.50" shape="131.65,45.25 131.65,54.75"/>
    </edge>
    <edge id=":2_8" function="internal">
        <lane id=":2_8_0" index="0" speed="13.89" length="10.32" shape="131.65,45.25 131.25,48.05 130.05,50.05 128.05,51.25 125.25,51.65"/>
    </edge>
    <edge id=":2_9" function="internal">
        <lane id=":2_9_0" index="0" speed="13.89" length="5.00" shape="125.25,48.35 126.61,48.16 127.57,47.58 128.16,46.61 128.35,45.25"/>
    </edge>
    <edge id=":2_10" function="internal">
        <lane id=":2_10_0" index="0" speed="13.89" length="9.50" shape="125.25,48.35 134.75,48.35"/>
    </edge>
    <edge id=":2_11" function="internal">
        <lane id=":2_11_0" index="0" speed="13.89" length="10.32" shape="125.25,48.35 128.05,48.75 130.05,49.95 131.25,51.95 131.65,54.75"/>
    </edge>
    <edge id=":3_0" function="internal">
        <lane id=":3_0_0" index="0" speed="13.89" length="4.82" shape="230.00,48.35 231.24,49.18 231.65,50.00 231.24,50.83 230.00,51.65"/>
    </edge>
    <edge id=":4_0" function="internal">
        <lane id=":4_0_0" index="0" speed="13.89" length="4.82" shape="31.65,150.00 30.82,151.24 30.00,151.65 29.18,151.24 28.35,150.00"/>
    </edge>
    <edge id=":5_0" function="internal">
        <lane id=":5_0_0" index="0" speed="13.89" length="4.82" shape="131.65,150.00 130.83,151.24 130.00,151.65 129.17,151.24 128.35,150.00"/>
    </edge>
    <edge id=":6_0" function="internal">
        <lane id=":6_0_0" index="0" speed="13.89" length="4.82" shape="28.35,-50.00 29.17,-51.24 30.00,-51.65 30.82,-51.24 31.65,-50.00"/>
    </edge>
    <edge id=":7_0" function="internal">
        <lane id=":7_0_0" index="0" speed="13.89" length="4.82" shape="128.35,-50.00 129.17,-51.24 130.00,-51.65 130.83,-51.24 131.65,-50.00"/>
    </edge>

    <edge id="1" from="0" to="1" priority="1">
        <lane id="1_0" index="0" speed="13.89" length="95.25" shape="-70.00,48.35 25.25,48.35"/>
    </edge>
    <edge id="10" from="6" to="1" priority="1" length="100.00">
        <lane id="10_0" index="0" speed="13.89" length="100.00" shape="31.65,-50.00 31.65,45.25"/>
    </edge>
    <edge id="11" from="5" to="2" priority="1" length="100.00">
        <lane id="11_0" index="0" speed="13.89" length="100.00" shape="128.35,150.00 128.35,54.75"/>
    </edge>
    <edge id="12" from="2" to="5" priority="1" length="100.00">
        <lane id="12_0" index="0" speed="13.89" length="100.00" shape="131.65,54.75 131.65,150.00"/>
    </edge>
    <edge id="13" from="2" to="7" priority="1" length="100.00">
        <lane id="13_0" index="0" speed="13.89" length="100.00" shape="128.35,45.25 128.35,-50.00"/>
    </edge>
    <edge id="14" from="7" to="2" priority="1" length="100.00">
        <lane id="14_0" index="0" speed="13.89" length="100.00" shape="131.65,-50.00 131.65,45.25"/>
    </edge>
    <edge id="2" from="1" to="2" priority="1">
        <lane id="2_0" index="0" speed="13.89" length="90.50" shape="34.75,48.35 125.25,48.35"/>
    </edge>
    <edge id="3" from="2" to="3" priority="1">
        <lane id="3_0" index="0" speed="13.89" length="95.25" shape="134.75,48.35 230.00,48.35"/>
    </edge>
    <edge id="4" from="3" to="2" priority="1">
        <lane id="4_0" index="0" speed="13.89" length="95.25" shape="230.00,51.65 134.75,51.65"/>
    </edge>
    <edge id="5" from="2" to="1" priority="1">
        <lane id="5_0" index="0" speed="13.89" length="90.50" shape="125.25,51.65 34.75,51.65"/>
    </edge>
    <edge id="6" from="1" to="0" priority="1">
        <lane id="6_0" index="0" speed="13.89" length="95.25" shape="25.25,51.65 -70.00,51.65"/>
    </edge>
    <edge id="7" from="4" to="1" priority="1" length="100.00">
        <lane id="7_0" index="0" speed="13.89" length="100.00" shape="28.35,150.00 28.35,54.75"/>
    </edge>
    <edge id="8" from="1" to="4" priority="1" length="100.00">
        <lane id="8_0" index="0" speed="13.89" length="100.00" shape="31.65,54.75 31.65,150.00"/>
    </edge>
    <edge id="9" from="1" to="6" priority="1" length="100.00">
        <lane id="9_0" index="0" speed="13.89" length="100.00" shape="28.35,45.25 28.35,-50.00"/>
    </edge>

    <tlLogic id="1" type="static" programID="0" offset="0">
        <phase duration="33" state="GGGrrrrrrrrr"/>
        <phase duration="3" state="yyyrrrrrrrrr"/>
        <phase duration="6" state="rrrrrrrrrrrr"/>
        <phase duration="33" state="rrrGGGrrrrrr"/>
        <phase duration="3" state="rrryyyrrrrrr"/>
        <phase duration="6" state="rrrrrrrrrrrr"/>
        <phase duration="33" state="rrrrrrGGGrrr"/>
        <phase duration="3" state="rrrrrryyyrrr"/>
        <phase duration="6" state="rrrrrrrrrrrr"/>
        <phase duration="33" state="rrrrrrrrrGGG"/>
        <phase duration="3" state="rrrrrrrrryyy"/>
        <phase duration="6" state="rrrrrrrrrrrr"/>
    </tlLogic>
    <tlLogic id="2" type="static" programID="0" offset="0">
        <phase duration="33" state="GGGrrrrrrrrr"/>
        <phase duration="3" state="yyyrrrrrrrrr"/>
        <phase duration="6" state="rrrrrrrrrrrr"/>
        <phase duration="33" state="rrrGGGrrrrrr"/>
        <phase duration="3" state="rrryyyrrrrrr"/>
        <phase duration="6" state="rrrrrrrrrrrr"/>
        <phase duration="33" state="rrrrrrGGGrrr"/>
        <phase duration="3" state="rrrrrryyyrrr"/>
        <phase duration="6" state="rrrrrrrrrrrr"/>
        <phase duration="33" state="rrrrrrrrrGGG"/>
        <phase duration="3" state="rrrrrrrrryyy"/>
        <phase duration="6" state="rrrrrrrrrrrr"/>
    </tlLogic>

    <junction id="0" type="priority" x="-70.00" y="50.00" incLanes="6_0" intLanes=":0_0_0" shape="-70.00,49.95 -70.00,53.25 -70.00,50.05">
        <request index="0" response="0" foes="0" cont="0"/>
    </junction>
    <junction id="1" type="traffic_light" x="30.00" y="50.00" incLanes="7_0 5_0 10_0 1_0" intLanes=":1_0_0 :1_1_0 :1_2_0 :1_3_0 :1_4_0 :1_5_0 :1_6_0 :1_7_0 :1_8_0 :1_9_0 :1_10_0 :1_11_0" shape="26.75,54.75 33.25,54.75 34.75,53.25 34.75,46.75 33.25,45.25 26.75,45.25 25.25,46.75 25.25,53.25">
        <request index="0" response="000000000000" foes="000100010000" cont="0"/>
        <request index="1" response="000000000000" foes="111100110000" cont="0"/>
        <request index="2" response="000011000000" foes="110011110000" cont="0"/>
        <request index="3" response="000010000000" foes="100010000000" cont="0"/>
        <request index="4" response="000110000111" foes="100110000111" cont="0"/>
        <request index="5" response="011110000110" foes="011110000110" cont="0"/>
        <request index="6" response="000000000000" foes="010000000100" cont="0"/>
        <request index="7" response="000000000000" foes="110000111100" cont="0"/>
        <request index="8" response="000000000011" foes="110000110011" cont="0"/>
        <request index="9" response="000000000010" foes="000000100010" cont="0"/>
        <request index="10" response="000111000110" foes="000111100110" cont="0"/>
        <request index="11" response="000110011110" foes="000110011110" cont="0"/>
    </junction>
    <junction id="2" type="traffic_light" x="130.00" y="50.00" incLanes="11_0 4_0 14_0 2_0" intLanes=":2_0_0 :2_1_0 :2_2_0 :2_3_0 :2_4_0 :2_5_0 :2_6_0 :2_7_0 :2_8_0 :2_9_0 :2_10_0 :2_11_0" shape="126.75,54.75 133.25,54.75 134.75,53.25 134.75,46.75 133.25,45.25 126.75,45.25 125.25,46.75 125.25,53.25">
        <request index="0" response="000000000000" foes="000100010000" cont="0"/>
        <request index="1" response="000000000000" foes="111100110000" cont="0"/>
        <request index="2" response="000011000000" foes="110011110000" cont="0"/>
        <request index="3" response="000010000000" foes="100010000000" cont="0"/>
        <request index="4" response="000110000111" foes="100110000111" cont="0"/>
        <request index="5" response="011110000110" foes="011110000110" cont="0"/>
        <request index="6" response="000000000000" foes="010000000100" cont="0"/>
        <request index="7" response="000000000000" foes="110000111100" cont="0"/>
        <request index="8" response="000000000011" foes="110000110011" cont="0"/>
        <request index="9" response="000000000010" foes="000000100010" cont="0"/>
        <request index="10" response="000111000110" foes="000111100110" cont="0"/>
        <request index="11" response="000110011110" foes="000110011110" cont="0"/>
    </junction>
    <junction id="3" type="priority" x="230.00" y="50.00" incLanes="3_0" intLanes=":3_0_0" shape="230.00,50.05 230.00,46.75 230.00,49.95">
        <request index="0" response="0" foes="0" cont="0"/>
    </junction>
    <junction id="4" type="priority" x="30.00" y="150.00" incLanes="8_0" intLanes=":4_0_0" shape="29.95,150.00 33.25,150.00 30.05,150.00">
        <request index="0" response="0" foes="0" cont="0"/>
    </junction>
    <junction id="5" type="priority" x="130.00" y="150.00" incLanes="12_0" intLanes=":5_0_0" shape="129.95,150.00 133.25,150.00 130.05,150.00">
        <request index="0" response="0" foes="0" cont="0"/>
    </junction>
    <junction id="6" type="priority" x="30.00" y="-50.00" incLanes="9_0" intLanes=":6_0_0" shape="30.05,-50.00 26.75,-50.00 29.95,-50.00">
        <request index="0" response="0" foes="0" cont="0"/>
    </junction>
    <junction id="7" type="priority" x="130.00" y="-50.00" incLanes="13_0" intLanes=":7_0_0" shape="130.05,-50.00 126.75,-50.00 129.95,-50.00">
        <request index="0" response="0" foes="0" cont="0"/>
    </junction>

    <connection from="1" to="9" fromLane="0" toLane="0" via=":1_9_0" tl="1" linkIndex="9" dir="r" state="o"/>
    <connection from="1" to="2" fromLane="0" toLane="0" via=":1_10_0" tl="1" linkIndex="10" dir="s" state="o"/>
    <connection from="1" to="8" fromLane="0" toLane="0" via=":1_11_0" tl="1" linkIndex="11" dir="l" state="o"/>
    <connection from="10" to="2" fromLane="0" toLane="0" via=":1_6_0" tl="1" linkIndex="6" dir="r" state="o"/>
    <connection from="10" to="8" fromLane="0" toLane="0" via=":1_7_0" tl="1" linkIndex="7" dir="s" state="o"/>
    <connection from="10" to="6" fromLane="0" toLane="0" via=":1_8_0" tl="1" linkIndex="8" dir="l" state="o"/>
    <connection from="11" to="5" fromLane="0" toLane="0" via=":2_0_0" tl="2" linkIndex="0" dir="r" state="o"/>
    <connection from="11" to="13" fromLane="0" toLane="0" via=":2_1_0" tl="2" linkIndex="1" dir="s" state="o"/>
    <connection from="11" to="3" fromLane="0" toLane="0" via=":2_2_0" tl="2" linkIndex="2" dir="l" state="o"/>
    <connection from="12" to="11" fromLane="0" toLane="0" via=":5_0_0" dir="t" state="M"/>
    <connection from="13" to="14" fromLane="0" toLane="0" via=":7_0_0" dir="t" state="M"/>
    <connection from="14" to="3" fromLane="0" toLane="0" via=":2_6_0" tl="2" linkIndex="6" dir="r" state="o"/>
    <connection from="14" to="12" fromLane="0" toLane="0" via=":2_7_0" tl="2" linkIndex="7" dir="s" state="o"/>
    <connection from="14" to="5" fromLane="0" toLane="0" via=":2_8_0" tl="2" linkIndex="8" dir="l" state="o"/>
    <connection from="2" to="13" fromLane="0" toLane="0" via=":2_9_0" tl="2" linkIndex="9" dir="r" state="o"/>
    <connection from="2" to="3" fromLane="0" toLane="0" via=":2_10_0" tl="2" linkIndex="10" dir="s" state="o"/>
    <connection from="2" to="12" fromLane="0" toLane="0" via=":2_11_0" tl="2" linkIndex="11" dir="l" state="o"/>
    <connection from="3" to="4" fromLane="0" toLane="0" via=":3_0_0" dir="t" state="M"/>
    <connection from="4" to="12" fromLane="0" toLane="0" via=":2_3_0" tl="2" linkIndex="3" dir="r" state="o"/>
    <connection from="4" to="5" fromLane="0" toLane="0" via=":2_4_0" tl="2" linkIndex="4" dir="s" state="o"/>
    <connection from="4" to="13" fromLane="0" toLane="0" via=":2_5_0" tl="2" linkIndex="5" dir="l" state="o"/>
    <connection from="5" to="8" fromLane="0" toLane="0" via=":1_3_0" tl="1" linkIndex="3" dir="r" state="o"/>
    <connection from="5" to="6" fromLane="0" toLane="0" via=":1_4_0" tl="1" linkIndex="4" dir="s" state="o"/>
    <connection from="5" to="9" fromLane="0" toLane="0" via=":1_5_0" tl="1" linkIndex="5" dir="l" state="o"/>
    <connection from="6" to="1" fromLane="0" toLane="0" via=":0_0_0" dir="t" state="M"/>
    <connection from="7" to="6" fromLane="0" toLane="0" via=":1_0_0" tl="1" linkIndex="0" dir="r" state="o"/>
    <connection from="7" to="9" fromLane="0" toLane="0" via=":1_1_0" tl="1" linkIndex="1" dir="s" state="o"/>
    <connection from="7" to="2" fromLane="0" toLane="0" via=":1_2_0" tl="1" linkIndex="2" dir="l" state="o"/>
    <connection from="8" to="7" fromLane="0" toLane="0" via=":4_0_0" dir="t" state="M"/>
    <connection from="9" to="10" fromLane="0" toLane="0" via=":6_0_0" dir="t" state="M"/>

    <connection from=":0_0" to="1" fromLane="0" toLane="0" dir="t" state="M"/>
    <connection from=":1_0" to="6" fromLane="0" toLane="0" dir="r" state="M"/>
    <connection from=":1_1" to="9" fromLane="0" toLane="0" dir="s" state="M"/>
    <connection from=":1_2" to="2" fromLane="0" toLane="0" dir="l" state="M"/>
    <connection from=":1_3" to="8" fromLane="0" toLane="0" dir="r" state="M"/>
    <connection from=":1_4" to="6" fromLane="0" toLane="0" dir="s" state="M"/>
    <connection from=":1_5" to="9" fromLane="0" toLane="0" dir="l" state="M"/>
    <connection from=":1_6" to="2" fromLane="0" toLane="0" dir="r" state="M"/>
    <connection from=":1_7" to="8" fromLane="0" toLane="0" dir="s" state="M"/>
    <connection from=":1_8" to="6" fromLane="0" toLane="0" dir="l" state="M"/>
    <connection from=":1_9" to="9" fromLane="0" toLane="0" dir="r" state="M"/>
    <connection from=":1_10" to="2" fromLane="0" toLane="0" dir="s" state="M"/>
    <connection from=":1_11" to="8" fromLane="0" toLane="0" dir="l" state="M"/>
    <connection from=":2_0" to="5" fromLane="0" toLane="0" dir="r" state="M"/>
    <connection from=":2_1" to="13" fromLane="0" toLane="0" dir="s" state="M"/>
    <connection from=":2_2" to="3" fromLane="0" toLane="0" dir="l" state="M"/>
    <connection from=":2_3" to="12" fromLane="0" toLane="0" dir="r" state="M"/>
    <connection from=":2_4" to="5" fromLane="0" toLane="0" dir="s" state="M"/>
    <connection from=":2_5" to="13" fromLane="0" toLane="0" dir="l" state="M"/>
    <connection from=":2_6" to="3" fromLane="0" toLane="0" dir="r" state="M"/>
    <connection from=":2_7" to="12" fromLane="0" toLane="0" dir="s" state="M"/>
    <connection from=":2_8" to="5" fromLane="0" toLane="0" dir="l" state="M"/>
    <connection from=":2_9" to="13" fromLane="0" toLane="0" dir="r" state="M"/>
    <connection from=":2_10" to="3" fromLane="0" toLane="0" dir="s" state="M"/>
    <connection from=":2_11" to="12" fromLane="0" toLane="0" dir="l" state="M"/>
    <connection from=":3_0" to="4" fromLane="0" toLane="0" dir="t" state="M"/>
    <connection from=":4_0" to="7" fromLane="0" toLane="0" dir="t" state="M"/>
    <connection from=":5_0" to="11" fromLane="0" toLane="0" dir="t" state="M"/>
    <connection from=":6_0" to="10" fromLane="0" toLane="0" dir="t" state="M"/>
    <connection from=":7_0" to="14" fromLane="0" toLane="0" dir="t" state="M"/>

</net>
